/*--------------------------------*- C++ -*----------------------------------*\
  =========                 |
  \\      /  F ield         | OpenFOAM: The Open Source CFD Toolbox
   \\    /   O peration     | SeedFOAM Hybrid 3D case generator
    \\  /    A nd           | Version:  14
     \\/     M anipulation  |
\*---------------------------------------------------------------------------*/
FoamFile
{
    format      ascii;
    class       dictionary;
    location    "system";
    object      topoSetDict;
}
// * * * * * * * * * * * * * * * * * * * * * * * * * * * * * * * * * * * * * //

actions
(
    {
        name    buildingCells; type cellSet; action new;
        source  boxToCell; box (5.045 10.7925 0)(5.7788 11.1107 5.2363);
    }
    {
        name    buildingCells; type cellSet; action add;
        source  boxToCell; box (12.6784 4.6219 0)(13.1026 4.9742 2.9734);
    }
    {
        name    buildingCells; type cellSet; action add;
        source  boxToCell; box (23.3661 4.6647 0)(23.954 5.0852 5.6961);
    }
    {
        name    buildingCells; type cellSet; action add;
        source  boxToCell; box (8.2734 3.6941 0)(9.0001 4.1216 7.6962);
    }
    {
        name    buildingCells; type cellSet; action add;
        source  boxToCell; box (19.2738 5.0439 0)(19.9766 5.3815 6.4255);
    }
    {
        name    buildingCells; type cellSet; action add;
        source  boxToCell; box (23.1429 5.4236 0)(23.5255 6.0014 5.8119);
    }
    {
        name    buildingCells; type cellSet; action add;
        source  boxToCell; box (12.8585 5.7079 0)(13.5341 6.083 6.8798);
    }
    {
        name    buildingCells; type cellSet; action add;
        source  boxToCell; box (9.6963 6.8945 0)(10.0175 7.418 4.0731);
    }
    {
        name    buildingCells; type cellSet; action add;
        source  boxToCell; box (11.2803 12.7848 0)(12.065 13.305 7.3254);
    }
    {
        name    buildingCells; type cellSet; action add;
        source  boxToCell; box (8.4058 5.8532 0)(9.0444 6.2281 5.0344);
    }
    {
        name    buildingCells; type cellSet; action add;
        source  boxToCell; box (15.1236 5.3483 0)(15.745 5.702 7.6662);
    }
    {
        name    buildingCells; type cellSet; action add;
        source  boxToCell; box (20.412 2.7168 0)(21.2093 3.0782 7.2814);
    }
    {
        name    buildingCells; type cellSet; action add;
        source  boxToCell; box (20.7687 11.9098 0)(21.3097 12.4641 3.5604);
    }
    {
        name    buildingCells; type cellSet; action add;
        source  boxToCell; box (18.4867 12.1075 0)(18.8364 12.5587 3.9817);
    }
    {
        name    buildingCells; type cellSet; action add;
        source  boxToCell; box (14.815 11.2296 0)(15.4453 11.5766 6.1822);
    }
    {
        name    buildingCells; type cellSet; action add;
        source  boxToCell; box (12.7343 10.5831 0)(13.403 10.9891 5.2668);
    }
    {
        name    buildingCells; type cellSet; action add;
        source  boxToCell; box (11.117 5.0676 0)(11.5635 5.3736 6.9477);
    }
    {
        name    buildingCells; type cellSet; action add;
        source  boxToCell; box (23.7828 10.6344 0)(24.2744 11.0984 3.6073);
    }
    {
        name    buildingCells; type cellSet; action add;
        source  boxToCell; box (16.4951 1.6403 0)(16.8497 2.1885 3.7581);
    }
    {
        name    buildingCells; type cellSet; action add;
        source  boxToCell; box (19.993 11.3764 0)(20.4189 11.7163 3.8657);
    }
    {
        name    buildingCells; type cellSet; action add;
        source  boxToCell; box (6.8734 2.8035 0)(7.523 3.2204 3.7235);
    }
    {
        name    buildingCells; type cellSet; action add;
        source  boxToCell; box (23.1075 8.1277 0)(23.4895 8.5016 4.4896);
    }
    {
        name    buildingCells; type cellSet; action add;
        source  boxToCell; box (5.4543 3.8416 0)(6.206 4.2866 6.81);
    }
    {
        name    buildingCells; type cellSet; action add;
        source  boxToCell; box (9.8262 8.5168 0)(10.2392 8.8285 5.643);
    }
    {
        name    buildingCells; type cellSet; action add;
        source  boxToCell; box (7.4444 12.3695 0)(8.0553 12.8278 6.4339);
    }
    {
        name    buildingCells; type cellSet; action add;
        source  boxToCell; box (21.2799 5.8258 0)(21.8629 6.3573 4.245);
    }
    {
        name    buildingCells; type cellSet; action add;
        source  boxToCell; box (10.8504 6.5447 0)(11.181 6.8539 4.9759);
    }
    {
        name    buildingCells; type cellSet; action add;
        source  boxToCell; box (20.2841 3.2274 0)(20.9616 3.7004 3.5169);
    }
    {
        name    buildingCells; type cellSet; action add;
        source  boxToCell; box (6.8782 7.3158 0)(7.2148 7.691 7.3743);
    }
    {
        name    buildingCells; type cellSet; action add;
        source  boxToCell; box (14.1152 2.9888 0)(14.6423 3.5096 4.8343);
    }
    {
        name    buildingCells; type cellSet; action add;
        source  boxToCell; box (8.8923 8.607 0)(9.4547 9.1726 6.8726);
    }
    {
        name    buildingCells; type cellSet; action add;
        source  boxToCell; box (15.3384 9.6994 0)(16.0566 10.2028 4.1251);
    }
    {
        name    buildingCells; type cellSet; action add;
        source  boxToCell; box (5.4949 5.0525 0)(6.2028 5.4589 3.472);
    }
    {
        name    buildingCells; type cellSet; action add;
        source  boxToCell; box (23.1473 9.7981 0)(23.4801 10.2294 4.4637);
    }
    {
        name    buildingCells; type cellSet; action add;
        source  boxToCell; box (20.618 7.8902 0)(21.0676 8.4235 7.3657);
    }
    {
        name    buildingCells; type cellSet; action add;
        source  boxToCell; box (17.6647 2.9785 0)(18.0523 3.4068 4.7073);
    }
    {
        name    buildingCells; type cellSet; action add;
        source  boxToCell; box (15.6204 7.9897 0)(15.9326 8.4493 6.1207);
    }
    {
        name    buildingCells; type cellSet; action add;
        source  boxToCell; box (20.9098 1.6398 0)(21.5107 2.1714 3.8133);
    }
    {
        name    buildingCells; type cellSet; action add;
        source  boxToCell; box (17.6616 11.3502 0)(18.2685 11.8269 3.8166);
    }
    {
        name    buildingCells; type cellSet; action add;
        source  boxToCell; box (18.654 7.0559 0)(19.2594 7.4875 3.35);
    }
    {
        name    buildingCells; type cellSet; action add;
        source  boxToCell; box (4.5094 7.8344 0)(4.8368 8.2863 5.4026);
    }
    {
        name    buildingCells; type cellSet; action add;
        source  boxToCell; box (14.3739 11.456 0)(14.8077 12.0174 3.6255);
    }
    {
        name    buildingCells; type cellSet; action add;
        source  boxToCell; box (9.3044 6.3459 0)(9.954 6.6636 5.38);
    }
    {
        name    buildingCells; type cellSet; action add;
        source  boxToCell; box (16.3195 3.7857 0)(16.7907 4.3476 2.9948);
    }
    {
        name    buildingCells; type cellSet; action add;
        source  boxToCell; box (5.0843 3.474 0)(5.57 3.7906 6.6733);
    }
    {
        name    buildingCells; type cellSet; action add;
        source  boxToCell; box (14.3506 8.4767 0)(14.7989 9.0398 5.3016);
    }
    {
        name    buildingCells; type cellSet; action add;
        source  boxToCell; box (23.2818 6.351 0)(23.6782 6.8687 3.742);
    }
    {
        name    buildingCells; type cellSet; action add;
        source  boxToCell; box (24.2645 3.3583 0)(24.7574 3.829 5.2931);
    }
    {
        name    buildingCells; type cellSet; action add;
        source  boxToCell; box (24.0549 1.5718 0)(24.5015 2.1013 3.2637);
    }
    {
        name    buildingCells; type cellSet; action add;
        source  boxToCell; box (6.8433 8.4094 0)(7.4438 8.7669 6.6755);
    }
    {
        name    buildingCells; type cellSet; action add;
        source  boxToCell; box (15.1875 9.1626 0)(15.8109 9.5094 5.1221);
    }
    {
        name    buildingCells; type cellSet; action add;
        source  boxToCell; box (21.924 7.2912 0)(22.4146 7.6915 3.3321);
    }
    {
        name    buildingCells; type cellSet; action add;
        source  boxToCell; box (16.732 2.997 0)(17.2565 3.3255 6.6976);
    }
    {
        name    buildingCells; type cellSet; action add;
        source  boxToCell; box (20.954 6.4051 0)(21.7269 6.8071 6.9246);
    }
    {
        name    buildingCells; type cellSet; action add;
        source  boxToCell; box (6.9521 10.967 0)(7.3299 11.4486 4.2579);
    }
    {
        name    buildingCells; type cellSet; action add;
        source  boxToCell; box (22.1941 10.7752 0)(22.6626 11.2119 6.6385);
    }
    {
        name    buildingCells; type cellSet; action add;
        source  boxToCell; box (16.1153 10.9337 0)(16.8996 11.251 3.483);
    }
    {
        name    buildingCells; type cellSet; action add;
        source  boxToCell; box (12.6279 9.6418 0)(13.1106 10.0245 6.6665);
    }
    {
        name    buildingCells; type cellSet; action add;
        source  boxToCell; box (17.4493 8.9363 0)(17.7933 9.3131 5.8984);
    }
    {
        name    buildingCells; type cellSet; action add;
        source  boxToCell; box (16.1477 2.6629 0)(16.723 3.1178 4.9292);
    }
    {
        name    buildingCells; type cellSet; action add;
        source  boxToCell; box (21.5386 1.662 0)(22.1109 2.0939 6.6192);
    }
    {
        name    buildingCells; type cellSet; action add;
        source  boxToCell; box (12.5298 3.1777 0)(13.1987 3.524 5.428);
    }
    {
        name    buildingCells; type cellSet; action add;
        source  boxToCell; box (11.6833 10.5853 0)(12.403 11.0341 3.0753);
    }
    {
        name    buildingCells; type cellSet; action add;
        source  boxToCell; box (20.3581 5.7287 0)(20.8116 6.2557 7.6121);
    }
    {
        name    buildingCells; type cellSet; action add;
        source  boxToCell; box (5.0509 7.9103 0)(5.617 8.4566 6.5401);
    }
    {
        name    buildingCells; type cellSet; action add;
        source  boxToCell; box (11.1367 1.4893 0)(11.8288 2.0859 4.6514);
    }
    {
        name    buildingCells; type cellSet; action add;
        source  boxToCell; box (7.7653 10.1473 0)(8.4504 10.7363 5.3507);
    }
    {
        name    buildingCells; type cellSet; action add;
        source  boxToCell; box (18.8214 2.8505 0)(19.3772 3.3279 5.146);
    }
    {
        name    buildingCells; type cellSet; action add;
        source  boxToCell; box (15.2782 2.2954 0)(15.8195 2.7158 6.7143);
    }
    {
        name    buildingCells; type cellSet; action add;
        source  boxToCell; box (15.1777 4.3977 0)(15.485 4.7486 5.0904);
    }
    {
        name    buildingCells; type cellSet; action add;
        source  boxToCell; box (8.0757 11.9234 0)(8.795 12.4998 4.6067);
    }
    {
        name    buildingCells; type cellSet; action add;
        source  boxToCell; box (12.5556 2.4022 0)(13.2676 2.9677 6.4657);
    }
    {
        name    buildingCells; type cellSet; action add;
        source  boxToCell; box (5.9718 8.4555 0)(6.6673 8.8113 4.4422);
    }
    {
        name    buildingCells; type cellSet; action add;
        source  boxToCell; box (5.8918 12.6675 0)(6.593 13.1105 5.0663);
    }
    {
        name    buildingCells; type cellSet; action add;
        source  boxToCell; box (7.2508 4.5818 0)(7.8818 4.9779 7.1008);
    }
    {
        name    buildingCells; type cellSet; action add;
        source  boxToCell; box (10.2736 4.714 0)(11.0444 5.2253 4.5358);
    }
    {
        name    buildingCells; type cellSet; action add;
        source  boxToCell; box (13.4362 3.3787 0)(13.7496 3.9166 4.1149);
    }
    {
        name    buildingCells; type cellSet; action add;
        source  boxToCell; box (11.123 9.1097 0)(11.5177 9.5304 4.4083);
    }
    {
        name    buildingCells; type cellSet; action add;
        source  boxToCell; box (17.1523 4.3884 0)(17.8511 4.692 7.2875);
    }
    {
        name    buildingCells; type cellSet; action add;
        source  boxToCell; box (17.6932 11.9488 0)(18.4744 12.402 7.4352);
    }
    {
        name    buildingCells; type cellSet; action add;
        source  boxToCell; box (8.7167 12.5507 0)(9.3511 12.9666 4.1132);
    }
    {
        name    buildingCells; type cellSet; action add;
        source  boxToCell; box (18.6186 2.1268 0)(19.0102 2.5839 3.0821);
    }
    {
        name    buildingCells; type cellSet; action add;
        source  boxToCell; box (13.6742 7.9349 0)(14.1536 8.3169 4.8039);
    }
    {
        name    buildingCells; type cellSet; action add;
        source  boxToCell; box (5.8288 9.2457 0)(6.3638 9.779 5.4454);
    }
    {
        name    buildingCells; type cellSet; action add;
        source  boxToCell; box (19.6578 3.9298 0)(19.9578 4.2552 3.9891);
    }
    {
        name    buildingCells; type cellSet; action add;
        source  boxToCell; box (19.4807 6.3449 0)(20.0967 6.6503 6.4124);
    }
    {
        name    buildingCells; type cellSet; action add;
        source  boxToCell; box (7.4808 8.4667 0)(8.0779 8.9811 4.5884);
    }
    {
        name    buildingCells; type cellSet; action add;
        source  boxToCell; box (17.3156 8.3467 0)(17.7254 8.8538 7.4152);
    }
    {
        name    buildingCells; type cellSet; action add;
        source  boxToCell; box (19.0093 4.2066 0)(19.584 4.6983 4.2397);
    }
    {
        name    buildingCells; type cellSet; action add;
        source  boxToCell; box (5.1696 2.8668 0)(5.8631 3.4094 3.9667);
    }
    {
        name    buildingCells; type cellSet; action add;
        source  boxToCell; box (24.0384 4.9813 0)(24.5018 5.3985 3.8246);
    }
    {
        name    buildingCells; type cellSet; action add;
        source  boxToCell; box (7.3993 6.3118 0)(7.7968 6.8511 4.7707);
    }
    {
        name    buildingCells; type cellSet; action add;
        source  boxToCell; box (9.3833 3.4136 0)(10.0764 3.8216 4.9998);
    }
    {
        name    buildingCells; type cellSet; action add;
        source  boxToCell; box (24.0549 7.4314 0)(24.7831 7.8385 3.9624);
    }
    {
        name    buildingCells; type cellSet; action add;
        source  boxToCell; box (6.4278 6.2871 0)(7.1177 6.6755 3.0011);
    }
    {
        name    buildingCells; type cellSet; action add;
        source  boxToCell; box (21.8676 10.3193 0)(22.5618 10.7583 4.2468);
    }
    {
        name    buildingCells; type cellSet; action add;
        source  boxToCell; box (15.4913 4.634 0)(15.9567 5.0445 3.1425);
    }
    {
        name    buildingCells; type cellSet; action add;
        source  boxToCell; box (12.4318 1.8076 0)(13.1449 2.1561 6.449);
    }
    {
        name    buildingCells; type cellSet; action add;
        source  boxToCell; box (16.024 5.5933 0)(16.5123 5.948 3.0409);
    }
    {
        name    buildingCells; type cellSet; action add;
        source  boxToCell; box (22.7532 3.5315 0)(23.1303 4.1051 4.463);
    }
    {
        name    buildingCells; type cellSet; action add;
        source  boxToCell; box (15.0511 8.1189 0)(15.564 8.5344 3.4869);
    }
    {
        name    buildingCells; type cellSet; action add;
        source  boxToCell; box (10.7622 7.3896 0)(11.0739 7.9781 4.8428);
    }
    {
        name    buildingCells; type cellSet; action add;
        source  boxToCell; box (11.7179 8.1427 0)(12.3569 8.4949 6.2407);
    }
    {
        name    buildingCells; type cellSet; action add;
        source  boxToCell; box (21.7531 2.5179 0)(22.0898 2.9933 5.0055);
    }
    {
        name    buildingCells; type cellSet; action add;
        source  boxToCell; box (23.6233 11.8367 0)(24.1622 12.4106 6.5944);
    }
    {
        name    buildingCells; type cellSet; action add;
        source  boxToCell; box (7.4622 1.8579 0)(7.7949 2.3497 3.1523);
    }
    {
        name    buildingCells; type cellSet; action add;
        source  boxToCell; box (14.8171 1.4969 0)(15.6019 1.8594 5.4856);
    }
    {
        name    buildingCells; type cellSet; action add;
        source  boxToCell; box (21.7235 9.1649 0)(22.4277 9.4886 5.0469);
    }
    {
        name    buildingCells; type cellSet; action add;
        source  boxToCell; box (4.6158 9.912 0)(5.3518 10.3134 3.6783);
    }
    {
        name    buildingCells; type cellSet; action add;
        source  boxToCell; box (20.0828 2.3519 0)(20.6583 2.6762 5.552);
    }
    {
        name    buildingCells; type cellSet; action add;
        source  boxToCell; box (16.8402 11.9425 0)(17.3718 12.3124 6.962);
    }
    {
        name    buildingCells; type cellSet; action add;
        source  boxToCell; box (21.3801 9.5084 0)(22.1202 9.8604 2.9903);
    }
    {
        name    buildingCells; type cellSet; action add;
        source  boxToCell; box (8.6028 5.3941 0)(8.9092 5.8266 5.8339);
    }
    {
        name    buildingCells; type cellSet; action add;
        source  boxToCell; box (6.1111 10.6224 0)(6.6658 11.0415 4.7279);
    }
    {
        name    buildingCells; type cellSet; action add;
        source  boxToCell; box (22.8856 4.6429 0)(23.213 5.094 5.4116);
    }
    {
        name    buildingCells; type cellSet; action add;
        source  boxToCell; box (18.4446 11.3487 0)(19.0093 11.934 5.8968);
    }
    {
        name    buildingCells; type cellSet; action add;
        source  boxToCell; box (8.32 2.0032 0)(8.9937 2.4729 5.6844);
    }
    {
        name    buildingCells; type cellSet; action add;
        source  boxToCell; box (9.5839 10.0871 0)(9.942 10.4588 3.6711);
    }
    {
        name    buildingCells; type cellSet; action add;
        source  boxToCell; box (11.0255 2.2343 0)(11.5175 2.7587 5.8564);
    }
    {
        name    buildingCells; type cellSet; action add;
        source  boxToCell; box (23.7322 6.8564 0)(24.349 7.3306 4.479);
    }
    {
        name    buildingCells; type cellSet; action add;
        source  boxToCell; box (8.6031 4.4453 0)(8.9842 5.0115 7.5703);
    }
    {
        name    buildingCells; type cellSet; action add;
        source  boxToCell; box (13.7072 1.6118 0)(14.2437 2.1923 5.5309);
    }
    {
        name    buildingCells; type cellSet; action add;
        source  boxToCell; box (20.7798 9.9768 0)(21.4149 10.5033 4.4116);
    }
    {
        name    buildingCells; type cellSet; action add;
        source  boxToCell; box (6.2255 11.576 0)(6.6434 12.0335 4.1486);
    }
    {
        name    buildingCells; type cellSet; action add;
        source  boxToCell; box (13.7466 7.377 0)(14.1162 7.9282 5.397);
    }
    {
        name    buildingCells; type cellSet; action add;
        source  boxToCell; box (8.7083 7.1614 0)(9.2843 7.6858 4.7728);
    }
    {
        name    buildingCells; type cellSet; action add;
        source  boxToCell; box (13.9042 4.5616 0)(14.2899 5.0826 7.6313);
    }
    {
        name    buildingCells; type cellSet; action add;
        source  boxToCell; box (13.2537 11.9488 0)(13.9364 12.3148 5.0669);
    }
    {
        name    buildingCells; type cellSet; action add;
        source  boxToCell; box (4.7316 4.363 0)(5.1868 4.8156 6.122);
    }
    {
        name    buildingCells; type cellSet; action add;
        source  boxToCell; box (12.9181 11.935 0)(13.2443 12.4661 3.7113);
    }
    {
        name    buildingCells; type cellSet; action add;
        source  boxToCell; box (17.1426 12.7418 0)(17.6799 13.2617 7.1456);
    }
    {
        name    buildingCells; type cellSet; action add;
        source  boxToCell; box (13.381 9.9801 0)(14.0051 10.4917 3.0874);
    }
    {
        name    buildingCells; type cellSet; action add;
        source  boxToCell; box (8.13 3.0987 0)(8.8228 3.4377 3.2969);
    }
    {
        name    buildingCells; type cellSet; action add;
        source  boxToCell; box (17.2843 9.369 0)(18.0129 9.8152 5.991);
    }
    {
        name    buildingCells; type cellSet; action add;
        source  boxToCell; box (5.3677 1.8587 0)(5.8345 2.4454 7.041);
    }
    {
        name    buildingCells; type cellSet; action add;
        source  boxToCell; box (16.6119 5.9321 0)(17.0103 6.442 7.1418);
    }
    {
        name    buildingCells; type cellSet; action add;
        source  boxToCell; box (21.3964 10.9975 0)(21.8312 11.437 7.0691);
    }
    {
        name    buildingCells; type cellSet; action add;
        source  boxToCell; box (17.3196 7.9102 0)(17.9886 8.3108 6.377);
    }
    {
        name    buildingCells; type cellSet; action add;
        source  boxToCell; box (13.1697 6.9559 0)(13.9168 7.2838 6.3733);
    }
    {
        name    buildingCells; type cellSet; action add;
        source  boxToCell; box (23.9029 5.7923 0)(24.383 6.3155 7.355);
    }
    {
        name    buildingCells; type cellSet; action add;
        source  boxToCell; box (22.5463 12.4476 0)(23.0659 13.0231 5.0261);
    }
    {
        name    buildingCells; type cellSet; action add;
        source  boxToCell; box (9.0588 10.7432 0)(9.5095 11.2081 4.194);
    }
    {
        name    buildingCells; type cellSet; action add;
        source  boxToCell; box (11.5461 2.0962 0)(12.2944 2.6418 4.3668);
    }
    {
        name    buildingCells; type cellSet; action add;
        source  boxToCell; box (22.3389 6.4634 0)(22.8727 6.9283 5.9981);
    }
    {
        name    buildingCells; type cellSet; action add;
        source  boxToCell; box (22.2796 8.4717 0)(22.9347 9.0181 6.367);
    }
    {
        name    buildingCells; type cellSet; action add;
        source  boxToCell; box (21.7591 4.0528 0)(22.3835 4.5107 3.5191);
    }
    {
        name    buildingCells; type cellSet; action add;
        source  boxToCell; box (19.9897 7.8613 0)(20.3132 8.3386 5.5322);
    }
    {
        name    buildingCells; type cellSet; action add;
        source  boxToCell; box (21.1732 7.9022 0)(21.8001 8.4507 4.114);
    }
    {
        name    buildingCells; type cellSet; action add;
        source  boxToCell; box (11.14 4.5342 0)(11.8817 4.8615 7.0144);
    }
    {
        name    buildingCells; type cellSet; action add;
        source  boxToCell; box (9.1102 11.3594 0)(9.8357 11.8129 3.4566);
    }
    {
        name    buildingCells; type cellSet; action add;
        source  boxToCell; box (10.6166 11.1008 0)(11.4144 11.6393 3.1523);
    }
    {
        name    buildingCells; type cellSet; action add;
        source  boxToCell; box (23.203 10.3403 0)(23.6852 10.6741 6.6755);
    }
    {
        name    buildingCells; type cellSet; action add;
        source  boxToCell; box (16.2188 11.8832 0)(16.8176 12.2698 3.9621);
    }
    {
        name    buildingCells; type cellSet; action add;
        source  boxToCell; box (18.7493 8.2844 0)(19.1523 8.7488 4.1578);
    }
    {
        name    buildingCells; type cellSet; action add;
        source  boxToCell; box (21.5584 3.5718 0)(22.0258 3.8812 5.8574);
    }
    {
        name    buildingCells; type cellSet; action add;
        source  boxToCell; box (16.9441 3.5353 0)(17.4929 3.8426 6.2917);
    }
    {
        name    buildingCells; type cellSet; action add;
        source  boxToCell; box (23.0706 2.8761 0)(23.4607 3.4439 4.1873);
    }
    {
        name    buildingCells; type cellSet; action add;
        source  boxToCell; box (4.6543 2.9779 0)(5.0301 3.2782 4.1131);
    }
    {
        name    buildingCells; type cellSet; action add;
        source  boxToCell; box (19.3054 9.0442 0)(19.7819 9.5185 5.7592);
    }
    {
        name    buildingCells; type cellSet; action add;
        source  boxToCell; box (14.8777 1.9662 0)(15.2248 2.3264 6.4833);
    }
    {
        name    buildingCells; type cellSet; action add;
        source  boxToCell; box (10.2168 6.1392 0)(10.6668 6.7094 6.4565);
    }
    {
        name    buildingCells; type cellSet; action add;
        source  boxToCell; box (20.1328 8.7682 0)(20.7598 9.3449 4.407);
    }
    {
        name    buildingCells; type cellSet; action add;
        source  boxToCell; box (5.3222 8.6844 0)(5.8205 8.989 3.7431);
    }
    {
        name    buildingCells; type cellSet; action add;
        source  boxToCell; box (12.9418 8.2914 0)(13.3161 8.6545 5.5991);
    }
    {
        name    buildingCells; type cellSet; action add;
        source  boxToCell; box (24.5601 2.5881 0)(25.1458 2.8962 3.633);
    }
    {
        name    buildingCells; type cellSet; action add;
        source  boxToCell; box (21.0589 3.3531 0)(21.53 3.6892 3.2973);
    }
    {
        name    buildingCells; type cellSet; action add;
        source  boxToCell; box (5.2962 6.489 0)(5.862 6.9645 5.2373);
    }
    {
        name    buildingCells; type cellSet; action add;
        source  boxToCell; box (22.1339 7.7733 0)(22.868 8.2647 5.9143);
    }
    {
        name    buildingCells; type cellSet; action add;
        source  boxToCell; box (11.8343 6.0243 0)(12.4053 6.3314 6.5047);
    }
    {
        name    buildingCells; type cellSet; action add;
        source  boxToCell; box (16.9837 5.2087 0)(17.4762 5.6385 7.3857);
    }
    {
        name    buildingCells; type cellSet; action add;
        source  boxToCell; box (7.929 10.748 0)(8.3428 11.228 5.6001);
    }
    {
        name    buildingCells; type cellSet; action add;
        source  boxToCell; box (15.6393 11.8414 0)(16.078 12.1849 3.2891);
    }
    {
        name    buildingCells; type cellSet; action add;
        source  boxToCell; box (15.0185 10.2568 0)(15.5308 10.6533 3.1243);
    }
    {
        name    buildingCells; type cellSet; action add;
        source  boxToCell; box (14.7409 7.0201 0)(15.4682 7.4334 4.9413);
    }
    {
        name    buildingCells; type cellSet; action add;
        source  boxToCell; box (10.1847 11.9776 0)(10.6585 12.4273 6.0316);
    }
    {
        name    buildingCells; type cellSet; action add;
        source  boxToCell; box (24.2944 8.8052 0)(24.7368 9.1273 4.0757);
    }
    {
        name    buildingCells; type cellSet; action add;
        source  boxToCell; box (14.6455 6.6413 0)(15.2269 6.9676 6.5999);
    }
    {
        name    buildingCells; type cellSet; action add;
        source  boxToCell; box (10.2942 8.0773 0)(10.7717 8.6675 4.602);
    }
    {
        name    buildingCells; type cellSet; action add;
        source  boxToCell; box (9.0805 10.3986 0)(9.5174 10.7293 3.8584);
    }
    {
        name    buildingCells; type cellSet; action add;
        source  boxToCell; box (15.9687 4.5747 0)(16.6524 5.1472 5.5526);
    }
    {
        name    buildingCells; type cellSet; action add;
        source  boxToCell; box (8.3521 6.4245 0)(9.007 6.8449 7.1961);
    }
    {
        name    buildingCells; type cellSet; action add;
        source  boxToCell; box (14.7598 12.3586 0)(15.3939 12.6703 5.6248);
    }
    {
        name    buildingCells; type cellSet; action add;
        source  boxToCell; box (16.3448 9.1236 0)(16.7517 9.5535 4.1176);
    }
    {
        name    buildingCells; type cellSet; action add;
        source  boxToCell; box (16.785 6.471 0)(17.2243 6.9924 4.4431);
    }
    {
        name    buildingCells; type cellSet; action add;
        source  boxToCell; box (18.1455 10.895 0)(18.7669 11.2841 7.2657);
    }
    {
        name    buildingCells; type cellSet; action add;
        source  boxToCell; box (5.8644 5.5304 0)(6.4218 6.0055 3.5953);
    }
    {
        name    buildingCells; type cellSet; action add;
        source  boxToCell; box (18.1204 8.4022 0)(18.5229 8.9699 6.1559);
    }
    {
        name    buildingCells; type cellSet; action add;
        source  boxToCell; box (11.8653 8.7758 0)(12.3414 9.2493 4.5239);
    }
    {
        name    buildingCells; type cellSet; action add;
        source  boxToCell; box (10.1076 5.6077 0)(10.7479 6.0254 4.3374);
    }
    {
        name    buildingCells; type cellSet; action add;
        source  boxToCell; box (11.4906 11.4856 0)(12.2118 11.8633 5.8859);
    }
    {
        name    buildingCells; type cellSet; action add;
        source  boxToCell; box (18.2183 3.462 0)(18.7118 3.8223 5.3711);
    }
    {
        name    buildingCells; type cellSet; action add;
        source  boxToCell; box (24.214 8.3067 0)(24.6646 8.6091 7.4016);
    }
    {
        name    buildingCells; type cellSet; action add;
        source  boxToCell; box (22.5153 4.2378 0)(23.1317 4.5384 6.5219);
    }
    {
        name    buildingCells; type cellSet; action add;
        source  boxToCell; box (10.872 5.5266 0)(11.3144 5.8425 5.6144);
    }
    {
        name    buildingCells; type cellSet; action add;
        source  boxToCell; box (16.8788 2.0067 0)(17.6633 2.4418 5.8499);
    }
    {
        name    buildingCells; type cellSet; action add;
        source  boxToCell; box (20.6504 11.3343 0)(21.3622 11.777 6.8794);
    }
    {
        name    buildingCells; type cellSet; action add;
        source  boxToCell; box (12.0485 7.082 0)(12.4448 7.5131 3.4972);
    }
    {
        name    buildingCells; type cellSet; action add;
        source  boxToCell; box (21.8313 5.1811 0)(22.1954 5.5943 5.1124);
    }
    {
        name    buildingCells; type cellSet; action add;
        source  boxToCell; box (18.6985 5.8733 0)(19.1616 6.2388 6.4312);
    }
    {
        name    buildingCells; type cellSet; action add;
        source  boxToCell; box (4.5757 12.0324 0)(5.2478 12.4413 6.5254);
    }
    {
        name    buildingCells; type cellSet; action add;
        source  boxToCell; box (6.2694 12.0484 0)(6.9007 12.534 4.7939);
    }
    {
        name    buildingCells; type cellSet; action add;
        source  boxToCell; box (12.6455 3.8399 0)(13.2098 4.3666 7.0372);
    }
    {
        name    buildingCells; type cellSet; action add;
        source  boxToCell; box (22.5955 7.295 0)(22.94 7.6317 5.873);
    }
    {
        name    buildingCells; type cellSet; action add;
        source  boxToCell; box (7.3948 5.0024 0)(7.9159 5.3831 3.5708);
    }
    {
        name    buildingCells; type cellSet; action add;
        source  boxToCell; box (8.345 9.6459 0)(8.9882 10.131 4.7391);
    }
    {
        name    buildingCells; type cellSet; action add;
        source  boxToCell; box (14.1397 9.423 0)(14.5947 9.8327 3.4939);
    }
    {
        name    buildingCells; type cellSet; action add;