/*--------------------------------*- C++ -*----------------------------------*\
  =========                 |
  \\      /  F ield         | OpenFOAM: The Open Source CFD Toolbox
   \\    /   O peration     | SeedFOAM Hybrid 3D case generator
    \\  /    A nd           | Version:  14
     \\/     M anipulation  |
\*---------------------------------------------------------------------------*/
FoamFile
{
    format      ascii;
    class       volScalarField;
    location    "0";
    object      p;
}
// * * * * * * * * * * * * * * * * * * * * * * * * * * * * * * * * * * * * * //

dimensions      [0 2 -2 0 0 0 0];
internalField   uniform 0;
boundaryField
{
    inlet     { type zeroGradient; }
    outlet    { type fixedValue; value uniform 0; }
    ground    { type zeroGradient; }
    buildings { type zeroGradient; }
    top       { type zeroGradient; }
    sides     { type symmetry; }
}

// ************************************************************************* //
